14
benzotriazole
C            -2.1565295961        0.7159462504       -0.0008108729
C            -2.1563560733       -0.6996395309       -0.0003799707
C            -0.9741075490       -1.4254113125        0.0001009621
C             0.2267696934       -0.6992197974        0.0001364536
C             0.2132991811        0.7153535367        0.0000735274
C            -0.9788351536        1.4536212994       -0.0004367730
N             1.5393279309        1.0347569121        0.0001907581
H             1.9890265603        1.9462881721        0.0001297983
N             2.3159989891       -0.0874455119        0.0001403764
N             1.5403886361       -1.1281624471        0.0001385371
H            -3.1144004704        1.2404116893       -0.0014420031
H            -3.1135424762       -1.2255694640       -0.0003941478
H            -0.9645080804       -2.5167702428        0.0004775283
H            -0.9867315919        2.5453404467       -0.0006241739
